# generated using pymatgen
data_SrCuO2
_symmetry_space_group_name_H-M   'P 1'
_cell_length_a   7.85570000
_cell_length_b   7.85570000
_cell_length_c   3.43380000
_cell_angle_alpha   90.00000000
_cell_angle_beta   90.00000000
_cell_angle_gamma   90.00000000
_symmetry_Int_Tables_number   1
_chemical_formula_structural   SrCuO2
_chemical_formula_sum   'Sr4 Cu4 O8'
_cell_volume   211.912137841
_cell_formula_units_Z   4
loop_
 _symmetry_equiv_pos_site_id
 _symmetry_equiv_pos_as_xyz
  1  'x, y, z'
loop_
 _atom_site_type_symbol
 _atom_site_label
 _atom_site_symmetry_multiplicity
 _atom_site_fract_x
 _atom_site_fract_y
 _atom_site_fract_z
 _atom_site_occupancy
  Cu  Cu1  1  0.000000  0.000000  0.000000  1
  Cu  Cu2  1  0.500000  0.000000  0.000000  1
  Cu  Cu3  1  0.000000  0.500000  0.000000  1
  Cu  Cu4  1  0.500000  0.500000  0.000000  1
  O  O5  1  0.250000  0.000000  0.000000  1
  O  O6  1  0.750000  0.000000  0.000000  1
  O  O7  1  0.250000  0.500000  0.000000  1
  O  O8  1  0.750000  0.500000  0.000000  1
  O  O9  1  0.000000  0.250000  0.000000  1
  O  O10  1  0.000000  0.750000  0.000000  1
  O  O11  1  0.500000  0.250000  0.000000  1
  O  O12  1  0.500000  0.750000  0.000000  1
  Sr  Sr13  1  0.250000  0.250000  0.500000  1
  Sr  Sr14  1  0.250000  0.750000  0.500000  1
  Sr  Sr15  1  0.750000  0.250000  0.500000  1
  Sr  Sr16  1  0.750000  0.750000  0.500000  1
